/*--------------------------------*- C++ -*----------------------------------*\
| =========                 |                                                 |
| \\      /  F ield         | OpenFOAM: The Open Source CFD Toolbox           |
|  \\    /   O peration     | Version:  2.0.1                                 |
|   \\  /    A nd           | Web:      www.OpenFOAM.com                      |
|    \\/     M anipulation  |                                                 |
\*---------------------------------------------------------------------------*/
FoamFile
{
    version     2.0;
    format      ascii;
    class       polyBoundaryMesh;
    location    "constant/polyMesh";
    object      boundary;
}
// * * * * * * * * * * * * * * * * * * * * * * * * * * * * * * * * * * * * * //

4
(
    wall
    {
        type            patch;
        nFaces          9920;
        startFace       530184;
    }
    bottom
    {
        type            patch;
        nFaces          532;
        startFace       540104;
    }
    atmosphere
    {
        type            patch;
        nFaces          548;
        startFace       540636;
    }
    bubble
    {
        type            patch;
        nFaces          16;
        startFace       541184;
    }
)

// ************************************************************************* //
