/*--------------------------------*- C++ -*----------------------------------*\
| =========                 |                                                 |
| \\      /  F ield         | OpenFOAM: The Open Source CFD Toolbox           |
|  \\    /   O peration     | Version:  2.1.x                                 |
|   \\  /    A nd           | Web:      www.OpenFOAM.org                      |
|    \\/     M anipulation  |                                                 |
\*---------------------------------------------------------------------------*/
FoamFile
{
    version     2.0;
    format      ascii;
    class       volScalarField;
    object      Theta;
}
// * * * * * * * * * * * * * * * * * * * * * * * * * * * * * * * * * * * * * //

dimensions          [ 0 2 -2 0 0 0 0 ];

internalField   uniform 0.0;

boundaryField
{
    bubble
    {
        type            fixedValue;
        value           uniform 1.0e-7;
    }

    atmosphere
    {
        type            inletOutlet;
        inletValue      uniform 1.0e-7;
        value           uniform 1.0e-7;
    }

    bottom
    {
        type            zeroGradient;
    }

    wall
    {
        type            zeroGradient;
    }

    defaultFaces
    {
        type            empty;
    }
}

// ************************************************************************* //
