/*--------------------------------*- C++ -*----------------------------------*\\
| =========                 |                                                 |
| \\      /  F ield         | OpenFOAM: The Open Source CFD Toolbox           |
|  \\    /   O peration     | Version:  1.6                                   |
|   \\  /    A nd           | Web:      www.OpenFOAM.org                      |
|    \\/     M anipulation  |                                                 |
\*---------------------------------------------------------------------------*/
FoamFile
{
    version     2.0;
    format      ascii;
    class       dictionary;
    location    "constant/polyMesh";
    object      blockMeshDict;
}
// * * * * * * * * * * * * * * * * * * * * * * * * * * * * * * * * * * * * * //

convertToMeters 0.001;


vertices
(
    (-3.535534e+01 -3.535534e+01 0.000000e+00) // 0
    (3.535534e+01 -3.535534e+01 0.000000e+00) // 1
    (3.535534e+01 3.535534e+01 0.000000e+00) // 2
    (-3.535534e+01 3.535534e+01 0.000000e+00) // 3
    (-1.414214e+01 -1.414214e+01 0.000000e+00) // 4
    (1.414214e+01 -1.414214e+01 0.000000e+00) // 5
    (1.414214e+01 1.414214e+01 0.000000e+00) // 6
    (-1.414214e+01 1.414214e+01 0.000000e+00) // 7
    (-3.535534e+01 -3.535534e+01 0.05000e+03) // 8
    (3.535534e+01  -3.535534e+01 0.05000e+03) // 9
    (3.535534e+01   3.535534e+01 0.05000e+03) // 10
    (-3.535534e+01  3.535534e+01 0.05000e+03) // 11
    (-1.414214e+01 -1.414214e+01 0.05000e+03) // 12
    (1.414214e+01  -1.414214e+01 0.05000e+03) // 13
    (1.414214e+01   1.414214e+01 0.05000e+03) // 14
    (-1.414214e+01  1.414214e+01 0.05000e+03) // 15
);

blocks
(
hex (0 1 5 4 8 9 13 12)   pipe (10 10 20)  edgeGrading (1.000000 1.000000 1.000000 1.000000 1.000000 1.000000 1.000000 1.000000 1.000000 1.000000 1.000000 1.000000)
hex (1 2 6 5 9 10 14 13)  pipe (10 10 20)  edgeGrading (1.000000 1.000000 1.000000 1.000000 1.000000 1.000000 1.000000 1.000000 1.000000 1.000000 1.000000 1.000000)
hex (2 3 7 6 10 11 15 14) pipe (10 10 20)  edgeGrading (1.000000 1.000000 1.000000 1.000000 1.000000 1.000000 1.000000 1.000000 1.000000 1.000000 1.000000 1.000000)
hex (3 0 4 7 11 8 12 15)  pipe (10 10 20)  edgeGrading (1.000000 1.000000 1.000000 1.000000 1.000000 1.000000 1.000000 1.000000 1.000000 1.000000 1.000000 1.000000)
hex (4 5 6 7 12 13 14 15) pipe (10 10 20)  edgeGrading (1.000000 1.000000 1.000000 1.000000 1.000000 1.000000 1.000000 1.000000 1.000000 1.000000 1.000000 1.000000)
);

edges
(
arc 0 1 (-9.184851e-15 -5.000000e+01 0.000000e+00)
arc 1 2 (5.000000e+01 0.000000e+00 0.000000e+00)
arc 2 3 (3.061617e-15 5.000000e+01 0.000000e+00)
arc 3 0 (-5.000000e+01 6.123234e-15 0.000000e+00)
arc 4 5 (-2.755455e-15 -1.500000e+01 0.000000e+00)
arc 5 6 (1.500000e+01 0.000000e+00 0.000000e+00)
arc 6 7 (9.184851e-16 1.500000e+01 0.000000e+00)
arc 7 4 (-1.500000e+01 1.836970e-15 0.000000e+00)
arc 8 9 (-9.184851e-15 -5.000000e+01   0.05000e+03)
arc 9 10 (5.000000e+01 0.000000e+00    0.05000e+03)
arc 10 11 (3.061617e-15 5.000000e+01   0.05000e+03)
arc 11 8 (-5.000000e+01 6.123234e-15   0.05000e+03)
arc 12 13 (-2.755455e-15 -1.500000e+01 0.05000e+03)
arc 13 14 (1.500000e+01 0.000000e+00   0.05000e+03)
arc 14 15 (9.184851e-16 1.500000e+01   0.05000e+03)
arc 15 12 (-1.500000e+01 1.836970e-15  0.05000e+03)
);


patches
(
patch wall
(
    (0 1 9 8)
    (1 2 10 9)
    (2 3 11 10)
    (3 0 8 11))
patch bottom
(
    (0 1 5 4)
    (1 2 6 5)
    (2 3 7 6)
    (3 0 4 7)
    (4 5 6 7))
patch atmosphere
(
    (8 9 13 12)
    (9 10 14 13)
    (10 11 15 14)
    (12 13 14 15)
    (11 8 12 15))
);

mergePatchPairs
(
);
