/*--------------------------------*- C++ -*----------------------------------*\
| =========                 |                                                 |
| \\      /  F ield         | OpenFOAM: The Open Source CFD Toolbox           |
|  \\    /   O peration     | Version:  2.0.1                                 |
|   \\  /    A nd           | Web:      www.OpenFOAM.com                      |
|    \\/     M anipulation  |                                                 |
\*---------------------------------------------------------------------------*/
FoamFile
{
    version     2.0;
    format      ascii;
    class       polyBoundaryMesh;
    location    "constant/polyMesh";
    object      boundary;
}
// * * * * * * * * * * * * * * * * * * * * * * * * * * * * * * * * * * * * * //

4
(
    wall
    {
        type            patch;
        nFaces          1520;
        startFace       96732;
    }
    bottom
    {
        type            patch;
        nFaces          532;
        startFace       98252;
    }
    atmosphere
    {
        type            patch;
        nFaces          2000;
        startFace       98784;
    }
    bubble
    {
        type            patch;
        nFaces          16;
        startFace       100784;
    }
)

// ************************************************************************* //
